Version 4
SHEET 1 880 680
WIRE 160 176 160 144
WIRE 288 176 160 176
WIRE 160 192 160 176
WIRE 288 208 288 176
WIRE 288 288 288 272
WIRE 160 400 160 272
WIRE 288 400 288 368
WIRE 288 400 160 400
WIRE 160 416 160 400
FLAG 160 416 0
FLAG 160 64 0
SYMBOL current 160 64 R0
WINDOW 123 0 0 Left 0
WINDOW 39 0 0 Left 0
SYMATTR InstName I1
SYMATTR Value SINE(0.05 0.05 1)
SYMBOL res 144 176 R0
SYMATTR InstName R1
SYMATTR Value 500
SYMBOL res 272 272 R0
SYMATTR InstName R2
SYMATTR Value 1
SYMBOL zener 304 272 R180
WINDOW 0 24 64 Left 2
WINDOW 3 24 0 Left 2
SYMATTR InstName D1
SYMATTR Value 1N750
SYMATTR Description Diode
SYMATTR Type diode
TEXT 126 440 Left 2 !.tran 5
