Version 4
SHEET 1 880 680
WIRE 16 176 16 128
WIRE 160 176 160 144
WIRE 160 176 16 176
WIRE 288 176 160 176
WIRE 160 192 160 176
WIRE 288 288 288 176
WIRE 160 400 160 272
WIRE 288 400 288 352
WIRE 288 400 160 400
WIRE 160 416 160 400
FLAG 160 416 0
FLAG 160 64 0
FLAG 288 176 Signal
FLAG 16 -32 0
SYMBOL current 160 64 R0
WINDOW 123 0 0 Left 0
WINDOW 39 0 0 Left 0
SYMATTR InstName I1
SYMATTR Value SINE(0.05 0.05 1)
SYMBOL res 144 176 R0
SYMATTR InstName R1
SYMATTR Value 500
SYMBOL zener 304 352 R180
WINDOW 0 24 64 Left 2
WINDOW 3 24 0 Left 2
SYMATTR InstName D1
SYMATTR Value 1N750
SYMATTR Description Diode
SYMATTR Type diode
SYMBOL res 0 32 R0
SYMATTR InstName R3
SYMATTR Value 23.5k
SYMBOL voltage 16 64 R180
WINDOW 0 24 96 Left 2
WINDOW 3 24 16 Left 2
WINDOW 123 0 0 Left 0
WINDOW 39 0 0 Left 0
SYMATTR InstName V1
SYMATTR Value 24V
TEXT 128 440 Left 2 !.tran 5
